* Nanosim Netlist Example

.lib "/lhome/shayan/Hspice/NCSU-CDK-1.5.1/ncsu-cdk-1.5.1/models/hspice/public/publicModel/tsmc25N" NMOS
.lib "/lhome/shayan/Hspice/NCSU-CDK-1.5.1/ncsu-cdk-1.5.1/models/hspice/public/publicModel/tsmc25P" PMOS

.SUBCKT INVERTERP_1 IN OUT
MP0 OUT IN VDD! VDD! TSMC25P L=(3E-07) W=(9E-07)
+AD=+6.75000000E-13 AS=+6.75000000E-13 PD=+3.30000000E-06
+PS=+3.30000000E-06 M=1
MN0 OUT IN 0 0 TSMC25N L=(3E-07) W=(4.5E-07)
+AD=+3.37500000E-13 AS=+3.37500000E-13 PD=+2.40000000E-06
+PS=+2.40000000E-06 M=1
.ENDS INVERTERP_1

C2 OUT_0 0 10E-15 M=1.0
C1 OUT_1 0 10E-15 M=1.0

XI1 IN_0 INTERNAL_0 INVERTERP_1
XI2 INTERNAL_0 OUT_0 INVERTERP_1
XI3 IN_1 NET38 INVERTERP_1
XI4 NET38 INTERNAL_1 INVERTERP_1
XI5 INTERNAL_1 OUT_1 INVERTERP_1

.global vdd!
.TEMP 25.0000
vvdd! vdd! 0 DC=2.5v

*.TRAN 1.00000E-09 5.00000E-08 START= 0.0000
*.OP
*.save
*.OPTIONS POST
*vIN_1 IN_1 0 pulse 0 2.5v 1n 1n 1n 10n 20n
*vIN_0 IN_0 0 pulse 0 2.5v 1n 1n 1n 10n 20n

.END
