****************************************************************************
****************************************************************************
.model   N  nmos   wmin=0.1u  wmax=900u  lmin=0.1u  lmax=900u   level=49
+ version  =  3.110000E+00
+ delvto   = 0.000000E+00 tox      = 7.400000E-09 lint     = -4.510344E-08
+ wint     = 6.009365E-08 rsh      = 1.050000E+02
+ xj       =  1.200000E-07 nch      =  1.000000E+17 vth0     =  6.405440E-01
+ lvth0    = -3.015603E-02 wvth0    = -2.014545E-02 k1       =  5.512640E-01
+ lk1      =  1.596120E-01 wk1      =  6.063472E-02 k2       =  4.611261E-02
+ lk2      = -8.447919E-02 wk2      = -1.001881E-02 k3       =  5.110300E-02
+ k3b      =  1.081780E+01 w0       =  1.678824E-06 nlx      =  1.322216E-07
+ dvt0w    =  1.796430E-01 dvt1w    =  6.353721E+07 dvt2w    =  9.660780E-01
+ dvt0     =  3.203920E+02 dvt1     =  1.718080E+00 dvt2     =  1.037280E-01
+ u0       =  7.231250E+02 lu0      =  5.000000E+01 wu0      =  1.000000E+02
+ ua       =  1.577264E-09 lua      =  1.516420E-09 wua      =  1.185770E-09
+ ub       =  9.462906E-19 lub      = -4.650452E-18 wub      = -9.082401E-19
+ uc       =  4.367263E-11 luc      = -1.000000E-10 wuc      =  5.533567E-11
+ vsat     =  1.208800E+05 lvsat    =  0.000000E+00 wvsat    =  2.000000E+04
+ a0       =  8.034120E-01 ags      =  0.000000E+00 b0       =  0.000000E+00
+ b1       =  0.000000E+00 keta     =  3.925546E-03 lketa    = -2.262554E-02
+ wketa    =  8.540350E-04 a1       = -1.610000E-01 a2       =  1.000000E+00
+ rdsw     =  1.199130E+03 prwg     =  1.156320E-01 prwb     =  7.576270E-01
+ wr       =  9.269710E-01 dwg      =  0.000000E+00 dwb      =  0.000000E+00
+ voff     = -1.040970E-01 lvoff    =  7.110244E-03 wvoff    = -5.740234E-02
+ nfactor  =  1.780330E+00 lnfactor = -1.769860E-01 wnfactor = -5.000000E-01
+ eta0     =  1.000000E-01 etab     =  1.000000E-01 dsub     =  1.343590E+00
+ cit      =  0.000000E+00 cdsc     =  3.243555E-02 cdscd    =  0.000000E+00
+ lcdscd   =  0.000000E+00 wcdscd   =  0.000000E+00 cdscb    =  1.140206E-02
+ lcdscb   =  0.000000E+00 wcdscb   =  0.000000E+00 pclm     =  1.430000E+00
+ pdiblc1  =  3.158600E-01 pdiblc2  =  1.327637E-02 pdiblcb  =  0.000000E+00
+ drout    =  8.435950E-01 pscbe1   =  1.435208E+10 pscbe2   =  2.069322E-05
+ pvag     =  2.297290E-01 delta    =  6.503030E-02 ngate    = 1e+31 
+ alpha0   =  0.000000E+00 lalpha0  =  0.000000E+00 walpha0  =  0.000000E+00
+ beta0    =  3.000000E+01 lbeta0   =  0.000000E+00 wbeta0   =  0.000000E+00
+ mobmod   =  1.000000E+00 tnom     =  2.500000E+01 ute      = -1.400000E+00
+ lute     =  4.600000E-01 wute     = -1.874800E-01 kt1      = -4.491860E-01
+ lkt1     =  1.040369E-03 wkt1     =  1.043427E-02 kt1l     = -7.323457E-09
+ lkt1l    =  1.181661E-08 wkt1l    =  2.383799E-09 kt2      = -6.046254E-02
+ lkt2     = -3.160504E-02 wkt2     =  1.219322E-02 ua1      =  5.912910E-09
+ lua1     =  5.945250E-10 wua1     =  1.705418E-10 ub1      = -6.879290E-18
+ lub1     = -1.679765E-19 wub1     = -3.388411E-18 uc1      = -1.037775E-11
+ luc1     =  1.735884E-11 wuc1     = -6.707448E-11 at       =  4.290000E+04
+ lat      =  0.000000E+00 wat      =  0.000000E+00 prt      =  0.000000E+00
+ lprt     =  0.000000E+00 wprt     =  0.000000E+00 wl       =  0.000000E+00
+ wln      =  1.000000E+00 ww       =  0.000000E+00 wwn      =  1.000000E+00
+ wwl      =  0.000000E+00 ll       =  0.000000E+00 lln      =  1.000000E+00
+ lw       =  0.000000E+00 lwn      =  1.000000E+00 lwl      =  0.000000E+00
+ cj       =  0.959302E-03 cjsw     =  0.133432E-09 mj       =  0.335938E+00
+ mjsw     =  0.851315E-01 pb       =  0.832339E+00 php      =  0.269365E+00
+ cgdo     =  0 cgso     =  0 
+ cgdl     =  0.101692E-09 cgsl     =  0.101692E-09 
+ cgbo     =  0.000000E+00
+ cgd1     =  0.000000E+00 cgs1     =  0.000000E+00 ckappa   =  6.000000E-01
+ cf       =  0.000000E+00 clc      =  1.000000E-07 cle      =  6.000000E-01
+ capmod   =  2.000000E+00 xpart    =  1.000000E+00 js       =  1.000000E-08
+ jsw      =  0.000000E+00 acm      =  2.000000E+00 hdif     =  0.320000E-06
+ paramchk =  1.000000E+00 sfvtflag =  1.000000E+00
****************************************************************************
****************************************************************************
.model   P  pmos   wmin=0.1u  wmax=900u  lmin=0.1u  lmax=900u   level=49
+ version  =  3.110000E+00
+ delvto   = 0.000000E+00 tox      = 7.000000E-09 lint     = -6.471880E-08
+ wint     = 5.625076E-08 rsh      = 1.650000E+02
+ xj       =  1.600000E-07 nch      =  1.672542E+17 vth0     = -6.354680E-01
+ lvth0    =  2.046778E-02 wvth0    =  9.387564E-02 k1       =  5.557320E-01
+ lk1      = -1.124581E-05 wk1      =  2.513135E-02 k2       =  4.785927E-03
+ lk2      = -1.323551E-04 wk2      = -6.522380E-03 k3       = -1.499610E+01
+ k3b      =  4.179750E-01 w0       =  6.909443E-06 nlx      =  6.023989E-07
+ dvt0w    =  1.621900E-01 dvt1w    =  7.820090E+04 dvt2w    =  2.015450E-01
+ dvt0     =  1.214740E+00 dvt1     =  2.827830E-01 dvt2     = -1.977680E-01
+ u0       =  1.106472E-02 lu0      =  1.916739E-03 wu0      =  3.516208E-04
+ ua       = -7.241497E-10 lua      = -5.670654E-10 wua      =  4.007529E-10
+ ub       =  1.964018E-18 lub      =  3.884223E-19 wub      = -5.769190E-19
+ uc       =  4.925281E-11 luc      = -1.717560E-13 wuc      = -8.245353E-12
+ vsat     =  1.945590E+05 lvsat    = -5.000000E+03 wvsat    = -9.000000E+03
+ a0       =  5.000000E-01 ags      =  0.000000E+00 b0       =  1.907241E-07
+ b1       =  0.000000E+00 keta     = -3.050048E-02 lketa    =  4.908446E-03
+ wketa    =  7.059396E-03 a1       = -1.000000E-02 a2       =  5.900000E-01
+ rdsw     =  9.804130E+02 prwg     = -2.597007E-02 prwb     =  6.088274E-02
+ wr       =  1.467290E+00 dwg      = -2.362214E-08 dwb      =  7.341987E-09
+ voff     = -2.017270E-01 lvoff    =  0.000000E+00 wvoff    =  0.000000E+00
+ nfactor  =  4.840030E+00 lnfactor =  0.000000E+00 wnfactor =  0.000000E+00
+ eta0     =  4.353140E-01 etab     =  0.000000E+00 dsub     =  6.089740E-01
+ cit      = -2.393339E-03 cdsc     =  7.152202E-05 cdscd    =  3.440504E-06
+ lcdscd   =  0.000000E+00 wcdscd   =  0.000000E+00 cdscb    = -1.509409E-05
+ lcdscb   =  0.000000E+00 wcdscb   =  0.000000E+00 pclm     =  9.029300E-01
+ pdiblc1  =  0.000000E+00 pdiblc2  =  1.498430E-01 pdiblcb  =  2.500000E-01
+ drout    =  1.193020E+00 pscbe1   =  5.180673E+08 pscbe2   =  1.001001E-20
+ pvag     =  5.000000E-01 delta    =  1.000000E-02 ngate    = 1e+31 
+ alpha0   =  0.000000E+00 lalpha0  =  0.000000E+00 walpha0  =  0.000000E+00
+ beta0    =  3.000000E+01 lbeta0   =  0.000000E+00 wbeta0   =  0.000000E+00
+ mobmod   =  1.000000E+00 tnom     =  2.500000E+01 ute      = -6.881690E-01
+ lute     =  4.590600E-03 wute     = -8.843654E-04 kt1      = -7.100000E-01
+ lkt1     =  0.000000E+00 wkt1     =  0.000000E+00 kt1l     =  0.000000E+00
+ lkt1l    =  0.000000E+00 wkt1l    =  0.000000E+00 kt2      =  2.200000E-02
+ lkt2     =  0.000000E+00 wkt2     =  0.000000E+00 ua1      =  6.322694E-09
+ lua1     = -2.014085E-09 wua1     = -1.424792E-10 ub1      = -1.054577E-17
+ lub1     =  3.488048E-18 wub1     =  1.114966E-18 uc1      = -8.147170E-10
+ luc1     =  1.964289E-10 wuc1     =  1.960108E-10 at       =  2.310000E+04
+ lat      =  0.000000E+00 wat      =  0.000000E+00 prt      =  0.000000E+00
+ lprt     =  0.000000E+00 wprt     =  0.000000E+00 wl       =  0.000000E+00
+ wln      =  1.000000E+00 ww       =  1.041220E-11 wwn      =  5.808160E-01
+ wwl      =  0.000000E+00 ll       =  3.144679E-16 lln      =  1.209320E+00
+ lw       =  0.000000E+00 lwn      =  1.000000E+00 lwl      =  3.143042E-22
+ cj       =  0.132334E-02 cjsw     =  0.133038E-09 mj       =  0.482681E+00
+ mjsw     =  0.245363E+00 pb       =  0.942921E+00 php      =  0.582820E+00
+ cgdo     =  0 cgso     =  0 cgbo     =  0.000000E+00
+ cgdl     =  0.198316E-09 cgsl     =  0.198316E-09 
+ cgd1     =  0.000000E+00 cgs1     =  0.000000E+00 ckappa   =  6.000000E-01
+ cf       =  0.000000E+00 clc      =  1.000000E-07 cle      =  6.000000E-01
+ capmod   =  2.000000E+00 xpart    =  1.000000E+00 js       =  1.000000E-08
+ jsw      =  0.000000E+00 acm      =  2.000000E+00 hdif     =  0.320000E-06
+ paramchk =  1.000000E+00 sfvtflag =  1.000000E+00
****************************************************************************
